testing/cases_bad/case_3BUS_C2_voltage.dat
01/01/26  EE574 GEN            100.0  2026W  3BUS
BUS DATA FOLLOWS                            3 ITEMS
   1 Slack               3 1.060   0.00     0.00     0.00   145.86   19.33                                  0.0000  0.0000     0
   2 Gen2                2 1.040  -2.50     0.00     0.00   -40.72    0.46                                  0.0000  0.0000     0
   3 Load3               0 1.450  -5.00   101.42    17.88     0.00    0.00                                  0.0000  0.0200     0
-999
BRANCH DATA FOLLOWS                         3 ITEMS
   1    2        1    0.02000    0.06000   0.03000                           1.000 0.0
   1    3        1    0.05000    0.16000   0.02000                           1.000 0.0
   2    3        1    0.04000    0.12000   0.02000                           1.000 0.0
-999
